REMARK  Name = 2hb1_102
REMARK  4 active torsions:
REMARK  status: ('A' for Active; 'I' for Inactive)
REMARK    1  A    between atoms: C4_4  and  C6_6
REMARK    2  A    between atoms: C5_5  and  O8_8
REMARK    3  A    between atoms: O8_8  and  C9_9
REMARK    4  A    between atoms: C9_9  and  C10_10
REMARK                            x       y       z     vdW  Elec       q    Type
REMARK                         _______ _______ _______ _____ _____    ______ ____
ROOT
ATOM      1  C   UNL     1      45.528  13.107   2.321  0.00  0.00    +0.040 A 
ATOM      2  S   UNL     1      44.594  13.739   1.051  0.00  0.00    -0.080 S 
ATOM      3  C   UNL     1      44.670  15.362   1.567  0.00  0.00    -0.192 A 
ATOM      4  C   UNL     1      45.444  15.444   2.757  0.00  0.00    +0.062 A 
ATOM      5  C   UNL     1      45.919  14.167   3.168  0.00  0.00    +0.057 A 
ATOM      6 BR   UNL     1      46.978  13.889   4.697  0.00  0.00    -0.057 Br
ENDROOT
BRANCH   3   7
ATOM      7  C   UNL     1      44.036  16.391   0.862  0.00  0.00    +1.032 C 
ATOM      8  O   UNL     1      44.273  17.563   1.038  0.00  0.00    -0.900 OA
ATOM      9  O   UNL     1      43.127  15.976  -0.041  0.00  0.00    -0.900 OA
ENDBRANCH   3   7
BRANCH   4  10
ATOM     10  O   UNL     1      45.761  16.633   3.520  0.00  0.00    -0.342 OA
BRANCH  10  11
ATOM     11  C   UNL     1      47.158  16.996   3.480  0.00  0.00    +0.174 C 
BRANCH  11  12
ATOM     12  C   UNL     1      47.657  17.432   4.859  0.00  0.00    +0.906 C 
ATOM     13  O   UNL     1      46.955  17.492   5.819  0.00  0.00    -0.900 OA
ATOM     14  O   UNL     1      48.964  17.735   4.909  0.00  0.00    -0.900 OA
ENDBRANCH  11  12
ENDBRANCH  10  11
ENDBRANCH   4  10
TORSDOF 4
